hiii this is new file......


new line....